#
# Generated from file LLNL.mech
# by ck2cti on Wed Feb  6 15:50:34 2013
#
units(length = "cm", time = "s", quantity = "mol", act_energy = "cal/mol")


ideal_gas(name = "gas",
      elements = " C  H  N  O  Ar  He ",
      species = """ H  H2  O  O2  OH  H2O  N2  HO2  H2O2  AR 
                   CO  CO2  CH2O  HCO  HO2CHO  O2CHO  HOCHO  OCHO  HOCH2O2H  HOCH2O2 
                   OCH2O2H  HOCH2O  CH3OH  CH2OH  CH3O  CH3O2H  CH3O2  CH4  CH3  CH2 
                   CH2(S)  C  CH  C2H6  C2H5  C2H4  C2H3  C2H2  C2H  CH3CHO 
                   CH3CO  CH2CHO  CH2CO  HCCO  HCCOH  CH3CO3H  CH3CO3  CH3CO2  C2H5OH  C2H5O 
                   PC2H4OH  SC2H4OH  O2C2H4OH  C2H5O2H  C2H5O2  C2H4O2H  C2H4O1-2  C2H3O1-2  CH3COCH3  CH3COCH2 
                   CH3COCH2O2  CH3COCH2O2H  CH3COCH2O  C2H3CHO  C2H3CO  C2H5CHO  C2H5CO  CH3OCH3  CH3OCH2  CH3OCH2O2 
                   CH2OCH2O2H  CH3OCH2O2H  CH3OCH2O  O2CH2OCH2O2H  HO2CH2OCHO  OCH2OCHO  HOCH2OCO  CH3OCHO  CH3OCO  CH2OCHO 
                   HE  C3H8  IC3H7  NC3H7  C3H6  C3H5-A  C3H5-S  C3H5-T  C3H4-P  C3H4-A 
                   C3H3  C3H2  C3H5O  C3H6OOH1-2  C3H6OOH1-3  C3H6OOH2-1  C3H6OOH1-2O2  C3H6OOH1-3O2  C3H6OOH2-1O2  C3H6OOH2-2 
                   NC3H7O2H  IC3H7O2H  NC3H7O2  IC3H7O2  NC3H7O  IC3H7O  C3H6O1-2  C3H6O1-3  C3KET12  C3KET13 
                   C3KET21  C3H51-2,3OOH  C3H52-1,3OOH  C3H6OH  HOC3H6O2  CH3CHCO  AC3H5OOH  C2H3OOH  C4H10  C4H8-1 
                   C4H8-2  PC4H9  SC4H9  C4H71-1  C4H71-2  C4H71-3  C4H71-4  C4H72-2  C4H6  PC4H9O2H 
                   SC4H9O2H  PC4H9O2  SC4H9O2  PC4H9O  SC4H9O  C4H7O  C4H8O1-2  C4H8O1-3  C4H8O1-4  C4H8O2-3 
                   PC4H8OH  SC4H8OH  C4H8OH-1O2  C4H8OH-2O2  C4H8OOH1-1  C4H8OOH1-2  C4H8OOH1-3  C4H8OOH1-4  C4H8OOH2-1  C4H8OOH2-2 
                   C4H8OOH2-3  C4H8OOH2-4  C4H8OOH1-2O2  C4H8OOH1-3O2  C4H8OOH1-4O2  C4H8OOH2-1O2  C4H8OOH2-3O2  C4H8OOH2-4O2  NC4KET12  NC4KET13 
                   NC4KET14  NC4KET21  NC4KET23  NC4KET24  C2H5COCH3  C2H5COCH2  CH2CH2COCH3  CH3CHCOCH3  C2H3COCH3  CH3CHOOCOCH3 
                   CH2CHOOHCOCH3  NC3H7CHO  NC3H7CO  C3H6CHO-1  C3H6CHO-2  C3H6CHO-3  C2H5CHCO  SC3H5CHO  SC3H5CO  CH2CH2CHO 
                   IC4H10  IC4H9  TC4H9  IC4H8  IC4H7  TC4H9O2  IC4H9O2  TC4H8O2H-I  IC4H8O2H-I  IC4H8O2H-T 
                   IC4H8O  CC4H8O  IC4H9O  TC4H9O  IC4H9O2H  TC4H9O2H  IC4H7O  IC4H8OH  IO2C4H8OH  IC3H7CHO 
                   TC3H6CHO  IC3H7CO  IC3H6CHO  TC4H8OOH-IO2  IC4H8OOH-IO2  IC4H8OOH-TO2  IC4KETII  IC4KETIT  IC4H7OH  IC4H6OH 
                   IC3H5CHO  IC3H5CO  TC3H6OCHO  IC3H6CO  IC4H7OOH  TC3H6OHCHO  TC3H6OH  IC3H5OH  TC3H6O2CHO  TC3H6O2HCO 
                   IC3H5O2HCHO  CH2CCH2OH  TC4H8CHO  O2C4H8CHO  O2HC4H8CO  C3H5OH  TIC4H7Q2-I  IIC4H7Q2-T  IIC4H7Q2-I  CH2O2H 
                   IC5H12  AC5H11  BC5H11  CC5H11  DC5H11  AC5H10  BC5H10  CC5H10  AC5H9-A2  AC5H9-C 
                   AC5H9-D  CC5H9-A  CC5H9-B  AC5H9O-A2  AC5H9O-C  CC5H9O-B  AC5H11O2H  BC5H11O2H  CC5H11O2H  DC5H11O2H 
                   AC5H11O2  BC5H11O2  CC5H11O2  DC5H11O2  AC5H11O  BC5H11O  CC5H11O  DC5H11O  AC5H10OOH-A  AC5H10OOH-B 
                   AC5H10OOH-C  AC5H10OOH-D  BC5H10OOH-A  BC5H10OOH-C  BC5H10OOH-D  CC5H10OOH-A  CC5H10OOH-B  CC5H10OOH-D  DC5H10OOH-A  DC5H10OOH-B 
                   DC5H10OOH-C  A-AC5H10O  A-BC5H10O  A-CC5H10O  A-DC5H10O  B-CC5H10O  B-DC5H10O  C-DC5H10O  AC5H10OOH-AO2  AC5H10OOH-BO2 
                   AC5H10OOH-CO2  AC5H10OOH-DO2  BC5H10OOH-AO2  BC5H10OOH-CO2  BC5H10OOH-DO2  CC5H10OOH-AO2  CC5H10OOH-BO2  CC5H10OOH-DO2  DC5H10OOH-AO2  DC5H10OOH-BO2 
                   DC5H10OOH-CO2  IC5KETAA  IC5KETAB  IC5KETAC  IC5KETAD  IC5KETCA  IC5KETCB  IC5KETCD  IC5KETDA  IC5KETDB 
                   IC5KETDC  AC5H10OH  BC5H10OH  CC5H10OH  AO2C5H10OH  BO2C5H10OH  CO2C5H10OH  CH3CHCHO  IC3H5COCH3  IC3H5COCH2 
                   AC3H4COCH3  IC6H14  AC6H13  BC6H13  CC6H13  DC6H13  EC6H13  AC6H12  BC6H12  CC6H12 
                   DC6H12  AC6H11-A2  AC6H11-C  AC6H11-D  AC6H11-E  BC6H11-E  CC6H11-A  CC6H11-B  DC6H11-A  DC6H11-B 
                   DC6H11-C  AC6H11O-C  CC6H11O-B  DC6H11O-C  AC6H13O2  BC6H13O2  CC6H13O2  DC6H13O2  EC6H13O2  AC6H13O2H 
                   BC6H13O2H  CC6H13O2H  DC6H13O2H  EC6H13O2H  AC6H13O  BC6H13O  CC6H13O  DC6H13O  EC6H13O  AC6H12OOH-A 
                   AC6H12OOH-B  AC6H12OOH-C  AC6H12OOH-D  AC6H12OOH-E  BC6H12OOH-A  BC6H12OOH-C  BC6H12OOH-D  BC6H12OOH-E  CC6H12OOH-A  CC6H12OOH-B 
                   CC6H12OOH-D  CC6H12OOH-E  DC6H12OOH-A  DC6H12OOH-B  DC6H12OOH-C  DC6H12OOH-E  EC6H12OOH-A  EC6H12OOH-B  EC6H12OOH-C  EC6H12OOH-D 
                   A-AC6H12O  A-BC6H12O  A-CC6H12O  A-DC6H12O  A-EC6H12O  B-CC6H12O  B-DC6H12O  B-EC6H12O  C-DC6H12O  C-EC6H12O 
                   D-EC6H12O  AC6H12OOH-AO2  AC6H12OOH-BO2  AC6H12OOH-CO2  AC6H12OOH-DO2  AC6H12OOH-EO2  BC6H12OOH-AO2  BC6H12OOH-CO2  BC6H12OOH-DO2  BC6H12OOH-EO2 
                   CC6H12OOH-AO2  CC6H12OOH-BO2  CC6H12OOH-DO2  CC6H12OOH-EO2  DC6H12OOH-AO2  DC6H12OOH-BO2  DC6H12OOH-CO2  DC6H12OOH-EO2  EC6H12OOH-AO2  EC6H12OOH-BO2 
                   EC6H12OOH-CO2  EC6H12OOH-DO2  IC6KETAA  IC6KETAB  IC6KETAC  IC6KETAD  IC6KETAE  IC6KETCA  IC6KETCB  IC6KETCD 
                   IC6KETCE  IC6KETDA  IC6KETDB  IC6KETDC  IC6KETDE  IC6KETEA  IC6KETEB  IC6KETEC  IC6KETED  AC6H12OH 
                   BC6H12OH  CC6H12OH  DC6H12OH  AO2C6H12OH  BO2C6H12OH  CO2C6H12OH  DO2C6H12OH  NC4H9CHO-2  NC4H9CO-2  C4H8CHO1-2 
                   C4H8CHO2-2  C4H8CHO3-2  C4H8CHO4-2  IC4H9CHO  IC4H9CO  IC3H6CH2CHO  TC3H6CH2CHO  IC3H7CHCHO  IC5H11CHO  IC5H11CO 
                   AC5H10CHO  BC5H10CHO  CC5H10CHO  DC5H10CHO  C4H7CHO1-4  C4H7CO1-4  C4H6CHO1-43  C4H6CHO1-44  C4H7CHO2-1  C4H7CO2-1 
                   C4H6CHO2-11  NC5H11CHO-2  NC5H11CO-2  C5H10CHO1-2  C5H10CHO2-2  C5H10CHO3-2  C5H10CHO4-2  C5H10CHO5-2  IC4H9COCH3  IC4H9COCH2 
                   IC3H6CH2COCH3  IC3H7CHCOCH3  TC3H6CH2COCH3  NC3H7COCH3  NC3H7COCH2  C3H6COCH3-1  C3H6COCH3-2  C3H6COCH3-3  AC3H5CHO  AC3H5CO 
                   C2H3CHCHO  C5H10-1  C5H10-2  C5H91-3  C5H91-4  C5H91-5  C5H92-4  C5H92-5  C5H9O1-3  C5H9O2-4 
                   C5H11-2  NC4H9CHO  NC4H9CO  C4H8CHO-1  C4H8CHO-2  C4H8CHO-3  C4H8CHO-4  IC3H7COC2H5  IC3H6COC2H5  TC3H6COC2H5 
                   IC3H7COC2H4P  IC3H7COC2H4S  IC3H5COC2H5  AC3H4COC2H5  IC3H5COC2H4P  IC3H5COC2H4S  IC3H7COCH3  IC3H7COCH2  IC3H6COCH3  TC3H6COCH3 
                   C2H5COC2H5  C2H5COC2H4P  C2H5COC2H4S  C2H5COC2H3  PC2H4COC2H3  SC2H4COC2H3  C5H91-2  IC5H8  IC5H7  IC5H7O 
                   C4H5  IC4H7-I1  C5H81-3  C7H16-24  XC7H15  YC7H15  ZC7H15  XC7H14  YC7H14  XC7H13-X1 
                   XC7H13-Z  XC7H13-X2  XC7H13-Y2  YC7H13-Y2  YC7H13-X2  XC7H13O-Z  YC7H13O-Y2  XC7H15O2  YC7H15O2  ZC7H15O2 
                   XC7H15O2H  YC7H15O2H  ZC7H15O2H  XC7H15O  YC7H15O  ZC7H15O  XC7H14OOH-X1  XC7H14OOH-Y1  XC7H14OOH-Z  XC7H14OOH-Y2 
                   XC7H14OOH-X2  YC7H14OOH-X1  YC7H14OOH-Z  YC7H14OOH-Y2  YC7H14OOH-X2  ZC7H14OOH-X  ZC7H14OOH-Y  XC7H14OOH-X1O2  XC7H14OOH-X2O2  XC7H14OOH-Y1O2 
                   XC7H14OOH-Y2O2  XC7H14OOH-ZO2  YC7H14OOH-X1O2  YC7H14OOH-X2O2  YC7H14OOH-Y2O2  YC7H14OOH-ZO2  ZC7H14OOH-XO2  ZC7H14OOH-YO2  X-X1C7H14O  X-X2C7H14O 
                   X-Y1C7H14O  X-Y2C7H14O  X-ZC7H14O  Y-YC7H14O  Y-ZC7H14O  C7KET24XX1  C7KET24XY1  C7KET24XZ  C7KET24XY2  C7KET24XX2 
                   C7KET24ZX  C7KET24ZY  XC7H14OH  YC7H14OH  XO2C7H14OH  YO2C7H14OH  ACC6H10  ACC6H9-A  ACC6H9-D  NEOC5H12 
                   NEOC5H11  NEOC5H11O2H  NEOC5H11O2  NEOC5H11O  NEOC5H10OOH  NEO-C5H10O  NEOC5H10OOH-O2  NEOC5H9Q2  NEOC5H9Q2-N  NEOC5KET 
                   NEOC5KETOX  NEOC5KEJOL  IC4H6Q2-II  NEOC6H14  FC6H13  GC6H13  HC6H13  NEOC6H12  NEOC6H11  FC6H13O2 
                   GC6H13O2  HC6H13O2  FC6H13O2H  GC6H13O2H  HC6H13O2H  FC6H13O  GC6H13O  HC6H13O  FC6H12OOH-F  FC6H12OOH-G 
                   FC6H12OOH-H  GC6H12OOH-F  GC6H12OOH-H  HC6H12OOH-F  HC6H12OOH-G  FC6H12OOH-FO2  FC6H12OOH-GO2  FC6H12OOH-HO2  GC6H12OOH-FO2  GC6H12OOH-HO2 
                   HC6H12OOH-FO2  HC6H12OOH-GO2  F-FC6H12O  F-GC6H12O  F-HC6H12O  G-HC6H12O  NEOC6KETFF  NEOC6KETFG  NEOC6KETFH  NEOC6KETGF 
                   NEOC6KETGH  NEOC6KETHF  NEOC6KETHG  NEOC6H12OH  NEOO2C6H12OH  TC4H9CHO  TC4H9CO  NEOC5H11CHO  NEOC5H11CO  TC4H9CHCHO 
                   TC4H8CH2CHO  IC4H7CHO  IC4H7CO  AC3H4CH2CHO  IC3H5CHCHO  IC5H11CHO-B  IC5H11CO-B  IC5H10CHO-BA  IC5H10CHO-BC  IC5H10CHO-BD 
                   C4H7CHO1-2  C4H7CO1-2  C4H6CHO1-23  C4H6CHO1-24  C4H7CHO2-2  C4H7CO2-2  C4H6CHO2-21  C4H6CHO2-24  CH2CCHCH3  TC4H9COCH3 
                   TC4H9COCH2  TC4H8COCH3  CH2CCHO  IC3H6CHCHO  IC3H6CHCO  AC3H5CHCHO  AC5H9-A1  CH3CHOCHO  NEOC7H16  NC7H15 
                   OC7H15  PC7H15  QC7H15  OC7H14  PC7H14  OC7H13-N  PC7H13-N  PC7H13-O  PC7H13O-O  NC7H15O2 
                   OC7H15O2  PC7H15O2  QC7H15O2  NC7H15O2H  OC7H15O2H  PC7H15O2H  QC7H15O2H  NC7H15O  OC7H15O  PC7H15O 
                   QC7H15O  NC7H14OOH-N2  NC7H14OOH-Q  QC7H14OOH-N  NC7H14OOH-O  NC7H14OOH-P  QC7H14OOH-O  QC7H14OOH-P  OC7H14OOH-N  OC7H14OOH-Q 
                   PC7H14OOH-N  PC7H14OOH-Q  OC7H14OOH-P  PC7H14OOH-O  NC7H14OOH-N2O2  NC7H14OOH-QO2  QC7H14OOH-NO2  NC7H14OOH-OO2  NC7H14OOH-PO2  QC7H14OOH-OO2 
                   QC7H14OOH-PO2  OC7H14OOH-NO2  OC7H14OOH-QO2  PC7H14OOH-NO2  PC7H14OOH-QO2  OC7H14OOH-PO2  PC7H14OOH-OO2  N-NC7H14O  N-OC7H14O  N-PC7H14O 
                   N-QC7H14O  O-PC7H14O  O-QC7H14O  P-QC7H14O  NEOC7KETNN  NEOC7KETNO  NEOC7KETNP  NEOC7KETNQ  NEOC7KETON  NEOC7KETOP 
                   NEOC7KETOQ  NEOC7KETPN  NEOC7KETPO  NEOC7KETPQ  NEOC7KETQN  NEOC7KETQO  NEOC7KETQP  OC7H14OH  PC7H14OH  OO2C7H14OH 
                   PO2C7H14OH  IC8H18  AC8H17  BC8H17  CC8H17  DC8H17  IC8H16  JC8H16  IC8H14  IC8H15 
                   AC8H17O2  BC8H17O2  CC8H17O2  DC8H17O2  AC8H17O2H  BC8H17O2H  CC8H17O2H  DC8H17O2H  AC8H17O  BC8H17O 
                   CC8H17O  DC8H17O  AC8H16OOH-A  AC8H16OOH-B  AC8H16OOH-C  AC8H16OOH-D  BC8H16OOH-C  BC8H16OOH-A  BC8H16OOH-D  CC8H16OOH-D 
                   CC8H16OOH-B  CC8H16OOH-A  DC8H16OOH-C  DC8H16OOH-D  DC8H16OOH-B  DC8H16OOH-A  IC8ETERAA  IC8ETERAB  IC8ETERAC  IC8ETERAD 
                   IC8ETERBC  IC8ETERBD  IC8ETERCD  IC8ETERDD  AC8H16OOH-AO2  AC8H16OOH-BO2  AC8H16OOH-CO2  AC8H16OOH-DO2  BC8H16OOH-CO2  BC8H16OOH-AO2 
                   BC8H16OOH-DO2  CC8H16OOH-DO2  CC8H16OOH-BO2  CC8H16OOH-AO2  DC8H16OOH-CO2  DC8H16OOH-DO2  DC8H16OOH-BO2  DC8H16OOH-AO2  IC8KETAA  IC8KETAB 
                   IC8KETAC  IC8KETAD  IC8KETBA  IC8KETBC  IC8KETBD  IC8KETDA  IC8KETDB  IC8KETDC  IC8KETDD  CC8H16OH-B 
                   BC8H16OH-C  CC8H16OH-BO2  CC8H16O-BO2H  CC8H16OH-D  DC8H16OH-C  BC8H16OH-CO2  BC8H16O-CO2H  CC8H16OH-DO2  CC8H16O-DO2H  DC8H16OH-CO2 
                   DC8H16O-CO2H  IC6H13CHO-B  IC6H13CO-B  AC6H12CHO-B  CC6H12CHO-B  DC6H12CHO-B  EC6H12CHO-B  IC6H13CHO-D  IC6H13CO-D  AC6H12CHO-D 
                   BC6H12CHO-D  CC6H12CHO-D  DC6H12CHO-D  EC6H12CHO-D  IC3H7COC3H7-I  IC3H7COC3H6-I  IC3H7COC3H6-T  TC4H9COC2H5  TC4H8COC2H5  TC4H9COC2H4S 
                   TC4H9COC2H4P  NEOC5H11COCH3  NEOC5H10COCH3  TC4H9CHCOCH3  NEOC5H11COCH2  NEOC6H13CHO  NEOC6H13CO  FC6H12CHO  GC6H12CHO  HC6H12CHO 
                   IC4H7COCH3  IC4H7COCH2  IC3H5CHCOCH3  AC3H4CH2COCH3  XC7H13OOH-X1  XC7H13O-X1  YC7H13OOH-X1  YC7H13O-X1  OC7H13OOH-N  OC7H13O-N 
                   XC7H13OOH-Z  PC7H13OOH-O  OC7H13OOH-Q  OC7H13O-Q  NEOC6H11-H  XC7H13OOH-Y2  XC7H13O-Y2  YC7H13OOH-X2  YC7H13O-X2  CC6H11-D 
                   DC6H11-D  IC3H6CHCOCH3  AC3H5CHCOCH3  IC3H6CHCOCH2 """,
      reactions = "all",
      initial_state = state(temperature = 300.0,
                        pressure = OneAtm)    )



#-------------------------------------------------------------------------------
#  Species data 
#-------------------------------------------------------------------------------

species(name = "H",
    atoms = " H:1 ",
    thermo = (
       NASA( [  300.00,  1000.00], [  2.500000000E+00,   0.000000000E+00, 
                0.000000000E+00,   0.000000000E+00,   0.000000000E+00,
                2.547163000E+04,  -4.601176000E-01] ),
       NASA( [ 1000.00,  5000.00], [  2.500000000E+00,   0.000000000E+00, 
                0.000000000E+00,   0.000000000E+00,   0.000000000E+00,
                2.547163000E+04,  -4.601176000E-01] )
             ),
    note = "120186"
       )

species(name = "H2",
    atoms = " H:2 ",
    thermo = (
       NASA( [  300.00,  1000.00], [  3.298124000E+00,   8.249442000E-04, 
               -8.143015000E-07,  -9.475434000E-11,   4.134872000E-13,
               -1.012521000E+03,  -3.294094000E+00] ),
       NASA( [ 1000.00,  5000.00], [  2.991423000E+00,   7.000644000E-04, 
               -5.633829000E-08,  -9.231578000E-12,   1.582752000E-15,
               -8.350340000E+02,  -1.355110000E+00] )
             ),
    note = "121286"
       )

species(name = "O",
    atoms = " O:1 ",
    thermo = (
       NASA( [  300.00,  1000.00], [  2.946429000E+00,  -1.638166000E-03, 
                2.421032000E-06,  -1.602843000E-09,   3.890696000E-13,
                2.914764000E+04,   2.963995000E+00] ),
       NASA( [ 1000.00,  5000.00], [  2.542060000E+00,  -2.755062000E-05, 
               -3.102803000E-09,   4.551067000E-12,  -4.368052000E-16,
                2.923080000E+04,   4.920308000E+00] )
             ),
    note = "120186"
       )

species(name = "O2",
    atoms = " O:2 ",
    thermo = (
       NASA( [  300.00,  1000.00], [  3.212936000E+00,   1.127486000E-03, 
               -5.756150000E-07,   1.313877000E-09,  -8.768554000E-13,
               -1.005249000E+03,   6.034738000E+00] ),
       NASA( [ 1000.00,  5000.00], [  3.697578000E+00,   6.135197000E-04, 
               -1.258842000E-07,   1.775281000E-11,  -1.136435000E-15,
               -1.233930000E+03,   3.189166000E+00] )
             ),
    note = "121386"
       )

species(name = "OH",
    atoms = " H:1  O:1 ",
    thermo = (
       NASA( [  300.00,  1710.00], [  3.418962260E+00,   3.192558010E-04, 
               -3.082927170E-07,   3.644074940E-10,  -1.001954790E-13,
                3.452644480E+03,   2.544333720E+00] ),
       NASA( [ 1710.00,  5000.00], [  2.853760400E+00,   1.029943340E-03, 
               -2.326664770E-07,   1.937507040E-11,  -3.157598470E-16,
                3.699497200E+03,   5.787568250E+00] )
             ),
    note = "7/13/ 0 RUCIC"
       )

species(name = "H2O",
    atoms = " H:2  O:1 ",
    thermo = (
       NASA( [  300.00,  1000.00], [  3.386842000E+00,   3.474982000E-03, 
               -6.354696000E-06,   6.968581000E-09,  -2.506588000E-12,
               -3.020811000E+04,   2.590233000E+00] ),
       NASA( [ 1000.00,  5000.00], [  2.672146000E+00,   3.056293000E-03, 
               -8.730260000E-07,   1.200996000E-10,  -6.391618000E-15,
               -2.989921000E+04,   6.862817000E+00] )
             ),
    note = "20387"
       )

species(name = "N2",
    atoms = " N:2 ",
    thermo = (
       NASA( [  300.00,  1000.00], [  3.298677000E+00,   1.408240000E-03, 
               -3.963222000E-06,   5.641515000E-09,  -2.444855000E-12,
               -1.020900000E+03,   3.950372000E+00] ),
       NASA( [ 1000.00,  5000.00], [  2.926640000E+00,   1.487977000E-03, 
               -5.684761000E-07,   1.009704000E-10,  -6.753351000E-15,
               -9.227977000E+02,   5.980528000E+00] )
             ),
    note = "121286"
       )

species(name = "HO2",
    atoms = " H:1  O:2 ",
    thermo = (
       NASA( [  200.00,  1000.00], [  4.301798010E+00,  -4.749120510E-03, 
                2.115828910E-05,  -2.427638940E-08,   9.292251240E-12,
                2.948080400E+02,   3.716662450E+00] ),
       NASA( [ 1000.00,  3500.00], [  4.017210900E+00,   2.239820130E-03, 
               -6.336581500E-07,   1.142463700E-10,  -1.079085350E-14,
                1.118567130E+02,   3.785102150E+00] )
             ),
    note = "L 5/89"
       )

species(name = "H2O2",
    atoms = " H:2  O:2 ",
    thermo = (
       NASA( [  300.00,  1000.00], [  3.388754000E+00,   6.569226000E-03, 
               -1.485013000E-07,  -4.625806000E-09,   2.471515000E-12,
               -1.766315000E+04,   6.785363000E+00] ),
       NASA( [ 1000.00,  5000.00], [  4.573167000E+00,   4.336136000E-03, 
               -1.474689000E-06,   2.348904000E-10,  -1.431654000E-14,
               -1.800696000E+04,   5.011370000E-01] )
             ),
    note = "120186"
       )

species(name = "AR",
    atoms = " Ar:1 ",
    thermo = (
       NASA( [  300.00,  1000.00], [  2.500000000E+00,   0.000000000E+00, 
                0.000000000E+00,   0.000000000E+00,   0.000000000E+00,
               -7.453750000E+02,   4.366001000E+00] ),
       NASA( [ 1000.00,  5000.00], [  2.500000000E+00,   0.000000000E+00, 
                0.000000000E+00,   0.000000000E+00,   0.000000000E+00,
               -7.453750000E+02,   4.366001000E+00] )
             ),
    note = "120186"
       )

species(name = "CO",
    atoms = " C:1  O:1 ",
    thermo = (
       NASA( [  300.00,  1429.00], [  3.190363520E+00,   8.944199720E-04, 
               -3.249275630E-08,  -1.045999670E-10,   2.419656930E-14,
               -1.428690540E+04,   5.332779140E+00] ),
       NASA( [ 1429.00,  5000.00], [  3.112168900E+00,   1.159482830E-03, 
               -3.384803620E-07,   4.414030980E-11,  -2.128622280E-15,
               -1.427185390E+04,   5.717251770E+00] )
             ),
    note = "29/11/04"
       )

species(name = "CO2",
    atoms = " C:1  O:2 ",
    thermo = (
       NASA( [  300.00,  1380.00], [  2.579304900E+00,   8.246849870E-03, 
               -6.427160470E-06,   2.546370240E-09,  -4.120304430E-13,
               -4.841628300E+04,   8.811410410E+00] ),
       NASA( [ 1380.00,  5000.00], [  5.189530180E+00,   2.060064760E-03, 
               -7.335753240E-07,   1.170043740E-10,  -6.917292150E-15,
               -4.931789530E+04,  -5.182893030E+00] )
             ),
    note = "29/11/04"
       )

species(name = "CH2O",
    atoms = " C:1  H:2  O:1 ",
    thermo = (
       NASA( [  300.00,  1486.00], [  3.007541970E+00,   3.047294960E-03, 
                5.251092460E-06,  -5.120192810E-09,   1.271337950E-12,
               -1.411883970E+04,   8.101202330E+00] ),
       NASA( [ 1486.00,  5000.00], [  4.020683940E+00,   5.099034170E-03, 
               -1.764304800E-06,   2.760258790E-10,  -1.609980420E-14,
               -1.492872580E+04,   1.065255470E+00] )
             ),
    note = "6/29/04 RUSCI"
       )

species(name = "HCO",
    atoms = " H:1  C:1  O:1 ",
    thermo = (
       NASA( [  300.00,  1690.00], [  3.810499650E+00,   8.132698250E-04, 
                3.131647010E-06,  -2.394782680E-09,   5.068945540E-13,
                4.038599010E+03,   4.948431650E+00] ),
       NASA( [ 1690.00,  5000.00], [  3.441481640E+00,   3.521577190E-03, 
               -1.241361180E-06,   1.973286440E-10,  -1.165386160E-14,
                3.974096840E+03,   6.245934560E+00] )
             ),
    note = "29/11/04"
       )

species(name = "HO2CHO",
    atoms = " C:1  H:2  O:3 ",
    thermo = (
       NASA( [  300.00,  1378.00], [  2.424647260E+00,   2.197063800E-02, 
               -1.687055460E-05,   6.256121940E-09,  -9.116458430E-13,
               -3.548280060E+04,   1.750277960E+01] ),
       NASA( [ 1378.00,  5000.00], [  9.875038780E+00,   4.646637080E-03, 
               -1.672305220E-06,   2.686244130E-10,  -1.595952320E-14,
               -3.805024960E+04,  -2.249391550E+01] )
             ),
    note = "6/26/95 THERM"
       )

species(name = "O2CHO",
    atoms = " C:1  H:1  O:3 ",
    thermo = (
       NASA( [  300.00,  1368.00], [  3.960593090E+00,   1.060022790E-02, 
               -5.257133510E-06,   1.017167260E-09,  -2.874876020E-14,
               -1.735993830E+04,   1.178074830E+01] ),
       NASA( [ 1368.00,  5000.00], [  7.240751390E+00,   4.633129510E-03, 
               -1.636939950E-06,   2.597066930E-10,  -1.529646990E-14,
               -1.870276180E+04,  -6.495472120E+00] )
             ),
    note = "6/26/95 THERM"
       )

species(name = "HOCHO",
    atoms = " C:1  H:2  O:2 ",
    thermo = (
       NASA( [  300.00,  1419.00], [  1.280690210E+00,   1.528877580E-02, 
               -5.641504760E-06,  -1.229687990E-09,   8.142732330E-13,
               -4.643475240E+04,   1.831420810E+01] ),
       NASA( [ 1419.00,  5000.00], [  7.671344400E+00,   4.434263730E-03, 
               -1.608674360E-06,   2.597700200E-10,  -1.548997040E-14,
               -4.897086600E+04,  -1.730244180E+01] )
             ),
    note = "9/27/ 5 THERM"
       )

species(name = "OCHO",
    atoms = " C:1  H:1  O:2 ",
    thermo = (
       NASA( [  300.00,  1412.00], [  1.429918540E+00,   1.228032840E-02, 
               -5.284610960E-06,  -3.730265510E-10,   5.079535710E-13,
               -1.620428140E+04,   1.804117790E+01] ),
       NASA( [ 1412.00,  5000.00], [  6.498155600E+00,   3.223190120E-03, 
               -1.170995950E-06,   1.892729180E-10,  -1.129370000E-14,
               -1.816790420E+04,  -1.004126130E+01] )
             ),
    note = "9/27/ 5 THERM"
       )

species(name = "HOCH2O2H",
    atoms = " C:1  H:4  O:3 ",
    thermo = (
       NASA( [  300.00,  1422.00], [  1.857166930E+00,   3.231531320E-02, 
               -2.699289020E-05,   1.116944840E-08,  -1.812841030E-12,
               -4.003144710E+04,   1.909177290E+01] ),
       NASA( [ 1422.00,  5000.00], [  1.163038270E+01,   7.151336880E-03, 
               -2.390350300E-06,   3.657727910E-10,  -2.101995240E-14,
               -4.310792420E+04,  -3.242767250E+01] )
             ),
    note = "4/ 9/98 THERM"
       )

species(name = "HOCH2O2",
    atoms = " C:1  H:3  O:3 ",
    thermo = (
       NASA( [  300.00,  1412.00], [  2.854416210E+00,   2.336635350E-02, 
               -1.881159900E-05,   7.967095150E-09,  -1.363466180E-12,
               -2.298661960E+04,   1.517305650E+01] ),
       NASA( [ 1412.00,  5000.00], [  9.045459380E+00,   7.152233730E-03, 
               -2.370056760E-06,   3.600834810E-10,  -2.057502280E-14,
               -2.494148860E+04,  -1.742105300E+01] )
             ),
    note = "4/ 9/98 THERM"
       )

species(name = "OCH2O2H",
    atoms = " C:1  H:3  O:3 ",
    thermo = (
       NASA( [  300.00,  1420.00], [  1.938230750E+00,   3.014657300E-02, 
               -2.610531520E-05,   1.094635620E-08,  -1.783126920E-12,
               -1.381666250E+04,   1.850420020E+01] ),
       NASA( [ 1420.00,  5000.00], [  1.153982460E+01,   5.342914320E-03, 
               -1.818789170E-06,   2.819686250E-10,  -1.635843480E-14,
               -1.682374890E+04,  -3.207006330E+01] )
             ),
    note = "4/ 9/98 THERM"
       )

species(name = "HOCH2O",
    atoms = " C:1  H:3  O:2 ",
    thermo = (
       NASA( [  300.00,  1452.00], [  4.111831450E+00,   7.538506970E-03, 
                3.773373700E-06,  -5.387460050E-09,   1.456158870E-12,
               -2.280230010E+04,   7.468072540E+00] ),
       NASA( [ 1452.00,  5000.00], [  6.395215150E+00,   7.436730430E-03, 
               -2.504223540E-06,   3.848797120E-10,  -2.217786890E-14,
               -2.411088400E+04,  -6.638655830E+00] )
             ),
    note = "2/16/99 THERM"
       )

species(name = "CH3OH",
    atoms = " C:1  H:4  O:1 ",
    thermo = (
       NASA( [  300.00,  1985.00], [  1.821768440E+00,   1.233264200E-02, 
               -2.737421770E-06,  -1.073873180E-09,   4.236448370E-13,
               -2.522222070E+04,   1.481043000E+01] ),
       NASA( [ 1985.00,  5000.00], [  3.928675130E+00,   9.816260740E-03, 
               -3.406154760E-06,   5.355101970E-10,  -3.137760290E-14,
               -2.614541750E+04,   2.694644830E+00] )
             ),
    note = "2/25/ 4 THERM"
       )

species(name = "CH2OH",
    atoms = " C:1  H:3  O:1 ",
    thermo = (
       NASA( [  300.00,  1399.00], [  3.056742280E+00,   1.193356340E-02, 
               -8.725013030E-06,   3.827810540E-09,  -7.228879510E-13,
               -2.831401900E+03,   8.988781330E+00] ),
       NASA( [ 1399.00,  5000.00], [  5.418759130E+00,   5.661852440E-03, 
               -1.874711360E-06,   2.844419380E-10,  -1.622997980E-14,
               -3.614755400E+03,  -3.492779630E+00] )
             ),
    note = "2/25/ 4 THERM"
       )

species(name = "CH3O",
    atoms = " C:1  H:3  O:1 ",
    thermo = (
       NASA( [  300.00,  1509.00], [  2.230580230E+00,   8.531785860E-03, 
                1.021666240E-06,  -3.410469160E-09,   9.946910380E-13,
                9.459397080E+02,   1.283775690E+01] ),
       NASA( [ 1509.00,  5000.00], [  4.647870190E+00,   6.908306830E-03, 
               -2.344047760E-06,   3.619945700E-10,  -2.092535410E-14,
               -2.992088810E+02,  -1.577401930E+00] )
             ),
    note = "8/ 9/ 4 THERM"
       )

species(name = "CH3O2H",
    atoms = " C:1  H:4  O:2 ",
    thermo = (
       NASA( [  300.00,  1367.00], [  2.838800240E+00,   1.860962490E-02, 
               -8.481654120E-06,   1.003874510E-09,   1.716124290E-13,
               -1.740337530E+04,   1.160924330E+01] ),
       NASA( [ 1367.00,  5000.00], [  8.804092890E+00,   8.094272180E-03, 
               -2.858432740E-06,   4.533697540E-10,  -2.669807070E-14,
               -1.985121740E+04,  -2.170005910E+01] )
             ),
    note = "1/14/ 5 THERM"
       )

species(name = "CH3O2",
    atoms = " C:1  H:3  O:2 ",
    thermo = (
       NASA( [  300.00,  1365.00], [  3.804975900E+00,   9.807846600E-03, 
               -3.909406240E-07,  -2.230726020E-09,   6.433108200E-13,
               -4.556257960E+02,   7.817891000E+00] ),
       NASA( [ 1365.00,  5000.00], [  6.347188010E+00,   7.920893580E-03, 
               -2.766019130E-06,   4.353606310E-10,  -2.549847620E-14,
               -1.834360550E+03,  -7.425525450E+00] )
             ),
    note = "1/14/ 5 THERM"
       )

species(name = "CH4",
    atoms = " H:4  C:1 ",
    thermo = (
       NASA( [  300.00,  1462.00], [  3.721130200E+00,  -2.502932890E-03, 
                1.902465340E-05,  -1.468712530E-08,   3.437911520E-12,
               -1.014240990E+04,   1.227765960E+00] ),
       NASA( [ 1462.00,  5000.00], [  4.096176530E+00,   7.443308450E-03, 
               -2.638719000E-06,   4.195776040E-10,  -2.475080500E-14,
               -1.138357040E+04,  -4.675613830E+00] )
             ),
    note = "29/11/04"
       )

species(name = "CH3",
    atoms = " C:1  H:3 ",
    thermo = (
       NASA( [  300.00,  1389.00], [  3.438581620E+00,   4.077526640E-03, 
                3.198309940E-07,  -9.476693900E-10,   2.218281660E-13,
                1.631640180E+04,   2.528074060E+00] ),
       NASA( [ 1389.00,  5000.00], [  3.512813760E+00,   5.114126130E-03, 
               -1.676320500E-06,   2.524951740E-10,  -1.433029230E-14,
                1.612380270E+04,   1.624361120E+00] )
             )
       )

species(name = "CH2",
    atoms = " C:1  H:2 ",
    thermo = (
       NASA( [  250.00,  1000.00], [  3.762237000E+00,   1.159819000E-03, 
                2.489585000E-07,   8.800836000E-10,  -7.332435000E-13,
                4.536791000E+04,   1.712578000E+00] ),
       NASA( [ 1000.00,  4000.00], [  3.636408000E+00,   1.933057000E-03, 
               -1.687016000E-07,  -1.009899000E-10,   1.808256000E-14,
                4.534134000E+04,   2.156561000E+00] )
             ),
    note = "120186"
       )

species(name = "CH2(S)",
    atoms = " C:1  H:2 ",
    thermo = (
       NASA( [  300.00,  1000.00], [  3.971265000E+00,  -1.699089000E-04, 
                1.025369000E-06,   2.492551000E-09,  -1.981266000E-12,
                4.989368000E+04,   5.753207000E-02] ),
       NASA( [ 1000.00,  4000.00], [  3.552889000E+00,   2.066788000E-03, 
               -1.914116000E-07,  -1.104673000E-10,   2.021350000E-14,
                4.984975000E+04,   1.686570000E+00] )
             ),
    note = "31287"
       )

species(name = "C",
    atoms = " C:1 ",
    thermo = (
       NASA( [  300.00,  1000.00], [  2.498585000E+00,   8.085777000E-05, 
               -2.697697000E-07,   3.040729000E-10,  -1.106652000E-13,
                8.545878000E+04,   4.753459000E+00] ),
       NASA( [ 1000.00,  5000.00], [  2.602087000E+00,  -1.787081000E-04, 
                9.087041000E-08,  -1.149933000E-11,   3.310844000E-16,
                8.542154000E+04,   4.195177000E+00] )
             )
       )

species(name = "CH",
    atoms = " C:1  H:1 ",
    thermo = (
       NASA( [  300.00,  1000.00], [  3.200202000E+00,   2.072876000E-03, 
               -5.134431000E-06,   5.733890000E-09,  -1.955533000E-12,
                7.045259000E+04,   3.331588000E+00] ),
       NASA( [ 1000.00,  5000.00], [  2.196223000E+00,   2.340381000E-03, 
               -7.058201000E-07,   9.007582000E-11,  -3.855040000E-15,
                7.086723000E+04,   9.178373000E+00] )
             ),
    note = "121286"
       )

species(name = "C2H6",
    atoms = " C:2  H:6 ",
    thermo = (
       NASA( [  300.00,  1383.00], [  4.786232030E-02,   2.405691270E-02, 
               -1.151559120E-05,   2.486662380E-09,  -1.783439440E-13,
               -1.109230140E+04,   2.065440710E+01] ),
       NASA( [ 1383.00,  5000.00], [  6.059726300E+00,   1.303828370E-02, 
               -4.481039420E-06,   6.977620950E-10,  -4.056063530E-14,
               -1.357512260E+04,  -1.286080010E+01] )
             ),
    note = "8/ 4/ 4 THERM"
       )

species(name = "C2H5",
    atoms = " C:2  H:5 ",
    thermo = (
       NASA( [  300.00,  1387.00], [  1.327302170E+00,   1.766567530E-02, 
               -6.149265580E-06,  -3.011434660E-10,   4.386177750E-13,
                1.342840280E+04,   1.717892160E+01] ),
       NASA( [ 1387.00,  5000.00], [  5.887843900E+00,   1.030767930E-02, 
               -3.468443960E-06,   5.324992570E-10,  -3.065126510E-14,
                1.150654990E+04,  -8.496517710E+00] )
             ),
    note = "8/ 4/ 4 THERM"
       )

species(name = "C2H4",
    atoms = " C:2  H:4 ",
    thermo = (